% ECLIPSE FILE

RUNSPEC

TITLE
PyReSim

DIMENS
-- NX NY NZ
   35 35 1  /

-- Phases
 OIL
 WATER
 GAS
 DISGAS

-- Units
 FIELD

 UNIFIN
 UNIFOUT

-- Wells
 WELLDIMS
 6 1 2 5 /

-- Aquifer direction (Connected to Eastern side of the reservoir)
 AQUDIMS
 1* 1 35 / 


-- Fault
FAULTDIM
 35 /


GRID

DX
   1225*300 /
DY
   1225*300 /
DZ
   1225*50 /

PORO
 1225*25 /
