% ECLIPSE FILE

RUNSPEC

TITLE
PyReSim

